CRYSTAL
PRIMVEC
  2.04447607  2.04447607  0.00000000
 -2.04447607  2.04447607  0.00000000
  0.00000000  0.00000000 29.51814549
CONVVEC
  2.04447607  2.04447607  0.00000000
 -2.04447607  2.04447607  0.00000000
  0.00000000  0.00000000 29.51814549
PRIMCOORD
      16       1
   0  0.00000000  2.04447607  0.00000000
   0  0.00000000  0.00000000  2.04447607
   0  0.00000000  2.04447607  4.08895214
  47  0.00000000  0.00000000  6.13342821
  47  0.00000000  2.04447607  8.17790428
  47  0.00000000  0.00000000 10.22238035
  47  0.00000000  2.04447607 12.26685642
  47  0.00000000  0.00000000 14.31133248
   8  0.00000000  0.00000000 16.76061482
  12  0.00000000  2.04447607 16.76061482
   8  0.00000000  2.04447607 18.89095888
  12  0.00000000  0.00000000 18.89095888
   0  0.00000000  2.04447607 21.34024121
   0  0.00000000  0.00000000 23.38471728
   0  0.00000000  2.04447607 25.42919335
   0  0.00000000  0.00000000 27.47366942
